Circuit: * E:\Fing\Proyecto\Circuito\Circuito.asc

WARNING: Node NC_01 is floating.

WARNING: Less than two connections to node NC_01.  This node is used by D1.
WARNING: Less than two connections to node NC_02.  This node is used by D2.
Early termination of direct N-R iteration.
Direct Newton iteration failed to find .op point.  (Use ".option noopiter" to skip.)
Starting Gmin stepping
Gmin = 10
vernier = 0.5
vernier = 0.25
vernier = 0.125
Gmin = 5.5165
vernier = 0.0625
vernier = 0.03125
vernier = 0.015625
vernier = 0.0078125
Gmin = 5.49501
vernier = 0.00390625
vernier = 0.00195313
vernier = 0.000976563
vernier = 0.000488281
Gmin = 5.50104
Gmin = 0
Gmin stepping failed

Starting source stepping with srcstepmethod=0
Source Step = 3.0303%
Source Step = 33.3333%
Source Step = 63.6364%
Source Step = 93.9394%
Source stepping succeeded in finding the operating point.

Singular matrix:  Check node d1#int1
   Iteration No. 1
Fatal Error: Singular matrix:  check node d1#int1
   Iteration No. 1

This circuit has floating nodes.
