Circuit: * E:\Fing\Proyecto\Circuito\Draft2.asc

Direct Newton iteration for .op point succeeded.

Date: Wed Aug 16 22:20:09 2017
Total elapsed time: 2.230 seconds.

tnom = 27
temp = 27
method = modified trap
totiter = 413772
traniter = 413747
tranpoints = 146635
accept = 100452
rejected = 46183
matrix size = 33
fillins = 43
solver = Normal
Matrix Compiler1: 3.97 KB object code size  1.0/0.6/[0.3]
Matrix Compiler2: 3.44 KB object code size  0.4/0.6/[0.4]

