Circuit: * E:\Fing\Proyecto\Circuito\Draft1.asc

WARNING: Node NC_01 is floating.
WARNING: Node NC_04 is floating.
WARNING: Node NC_03 is floating.

WARNING: Less than two connections to node NC_01.  This node is used by D1.
WARNING: Less than two connections to node NC_02.  This node is used by D2.
WARNING: Less than two connections to node NC_04.  This node is used by J:U3:1.
WARNING: Less than two connections to node NC_03.  This node is used by J:U3:2.
Instance "m:u2:6": Length shorter than recommended for a level 2 MOSFET.
Instance "m:u2:5": Length shorter than recommended for a level 2 MOSFET.
Instance "m:u2:4": Length shorter than recommended for a level 2 MOSFET.
Instance "m:u2:3": Length shorter than recommended for a level 2 MOSFET.
Instance "m:u2:2": Length shorter than recommended for a level 2 MOSFET.
Instance "m:u2:1": Length shorter than recommended for a level 2 MOSFET.
Direct Newton iteration for .op point succeeded.

Date: Wed Aug 16 20:54:33 2017
Total elapsed time: 24.909 seconds.

tnom = 27
temp = 27
method = modified trap
totiter = 1577288
traniter = 1577242
tranpoints = 551773
accept = 388039
rejected = 163734
matrix size = 85
fillins = 122
solver = Normal
Matrix Compiler1: 10.59 KB object code size  2.2/1.0/[0.5]
Matrix Compiler2: 9.36 KB object code size  0.9/1.6/[0.5]

