Circuit: * E:\Fing\Proyecto\Circuito\Osc.asc

WARNING: Node NC_01 is floating.

WARNING: Less than two connections to node NC_01.  This node is used by D1.
WARNING: Less than two connections to node NC_02.  This node is used by D2.
Direct Newton iteration for .op point succeeded.

Date: Wed Aug 16 21:02:50 2017
Total elapsed time: 13.989 seconds.

tnom = 27
temp = 27
method = modified trap
totiter = 1963188
traniter = 1963159
tranpoints = 614629
accept = 447741
rejected = 166888
matrix size = 34
fillins = 46
solver = Normal
Matrix Compiler1: 3.99 KB object code size  0.7/0.4/[0.3]
Matrix Compiler2: off  [0.2]/0.5/0.5

